/*--------------------------------*- C++ -*----------------------------------*\
| =========                 |                                                 |
| \\      /  F ield         | OpenFOAM: The Open Source CFD Toolbox           |
|  \\    /   O peration     | Version:  4.x                                   |
|   \\  /    A nd           | Web:      www.OpenFOAM.org                      |
|    \\/     M anipulation  |                                                 |
\*---------------------------------------------------------------------------*/
FoamFile
{
    version     2.0;
    format      ascii;
    class       volScalarField;
    object      nut;
}
// * * * * * * * * * * * * * * * * * * * * * * * * * * * * * * * * * * * * * //

dimensions      [0 2 -1 0 0 0 0];

internalField   uniform 0;

boundaryField
{

    Inlet
    {
        type        calculated;
        value       $internalField;
    }

    outlet
    {
        type        calculated;
        value       $internalField;
    }

    wall
    {
        type        nutkWallFunction;
        value       uniform 0;
    }

    defaultFaces
    {
        type        zeroGradient;
    }

}

// ************************************************************************* //
