/*--------------------------------*- C++ -*----------------------------------*\
|                                                                             |
|                Generated by the CfdOF workbench for FreeCAD                 |
|                  https://gitlab.com/opensimproject/CfdOF                    |
|                                                                             |
\*---------------------------------------------------------------------------*/
FoamFile
{
    version     4.0;
    format      ascii;
    class       dictionary;
    location    "system";
    object      blockMeshDict;
}
// * * * * * * * * * * * * * * * * * * * * * * * * * * * * * * * * * * * * * //

xMin    -0.099;
xMax    0.099;
yMin    -0.049000000000000016;
yMax    0.2740000650802056;
zMin    -0.4240001517866579;
zMax    0.099;
cellsX  21;
cellsY  33;
cellsZ  54;

vertices
(
    ( $xMin  $yMin  $zMin)
    ( $xMax  $yMin  $zMin)
    ( $xMax  $yMax  $zMin)
    ( $xMin  $yMax  $zMin)
    ( $xMin  $yMin  $zMax)
    ( $xMax  $yMin  $zMax)
    ( $xMax  $yMax  $zMax)
    ( $xMin  $yMax  $zMax)
);

blocks
(
    hex (0 1 2 3 4 5 6 7) ($cellsX $cellsY $cellsZ) simpleGrading (1 1 1)
);

edges
(
);

boundary
(
);

// ************************************************************************* //
