/*--------------------------------*- C++ -*----------------------------------*\
| =========                 |                                                 |
| \\      /  F ield         | OpenFOAM: The Open Source CFD Toolbox           |
|  \\    /   O peration     | Version:  4.x                                   |
|   \\  /    A nd           | Web:      www.OpenFOAM.org                      |
|    \\/     M anipulation  |                                                 |
\*---------------------------------------------------------------------------*/
FoamFile
{
    version     4.0;
    format      ascii;
    class       dictionary;
    location    "system";
    object      surfaceFeatureExtractDict;
}
// * * * * * * * * * * * * * * * * * * * * * * * * * * * * * * * * * * * * * //

surfaces
(
    "Body001_Geometry.stl"
);

includedAngle       150;
geometricTestOnly   no;

subsetFeatures
{
    nonManifoldEdges    yes;
    openEdges           yes;
}

trimFeatures
{
    minElem         0;
    minLen          0.0;
}

writeObj            yes;
verboseObj          no;

// ************************************************************************* //
